Circuit: * C:\Users\vscheyer\Documents\Classes_3rd_Semester\QEA\CYOA\Differentiator_op_amp.asc

Direct Newton iteration for .op point succeeded.

Date: Sun Dec 02 23:31:33 2018
Total elapsed time: 0.157 seconds.

tnom = 27
temp = 27
method = modified trap
totiter = 6216
traniter = 6212
tranpoints = 2084
accept = 1687
rejected = 397
matrix size = 10
fillins = 3
solver = Normal
Matrix Compiler1: 544 bytes object code size  0.5/0.3/[0.2]
Matrix Compiler2: 866 bytes object code size  0.3/0.4/[0.3]

