Circuit: * C:\Users\vscheyer\Documents\Classes_3rd_Semester\QEA\CYOA\PID_opamps.asc

WARNING: Specified period is not longer than the sum of Trise, Tfall, and Ton for v7.  Increasing period to 0.0001002
Direct Newton iteration failed to find .op point.  (Use ".option noopiter" to skip.)
Starting Gmin stepping
Gmin = 10
Gmin = 1.07374
Gmin = 0.115292
Gmin = 0.0123794
Gmin = 0.00132923
Gmin = 0.000142725
vernier = 0.5
vernier = 0.25
vernier = 0.125
vernier = 0.0625
vernier = 0.03125
Gmin = 5.84601e-005
vernier = 0.015625
vernier = 0.0078125
vernier = 0.00390625
vernier = 0.00195313
vernier = 0.000976563
vernier = 0.000488281
Gmin = 0
Gmin stepping failed

Starting source stepping with srcstepmethod=0
Source Step = 3.0303%
vernier = 0.25
Source Step = 0.0177557%
Starting source stepping with srcstepmethod=1
Source Step = 3.0303%
vernier = 0.25
Source stepping failed

Pseudo transient terminated at 100.132 s, solution accepted ready or not!

Date: Thu Dec 06 03:39:03 2018
Total elapsed time: 0.184 seconds.

tnom = 27
temp = 27
method = modified trap
totiter = 11199
traniter = 2229
tranpoints = 1079
accept = 1067
rejected = 49
matrix size = 21
fillins = 20
solver = Normal
Matrix Compiler1: 1.89 KB object code size  0.3/0.2/[0.1]
Matrix Compiler2: off  [0.2]/0.9/0.2

